/batch
/config,noeldb,1     ! force off writing results to database
*get,_wallstrt,active,,time,wall
! ANSYS input file written by Workbench version 2024 R1
! File used for geometry attach: C:\Users\asus\AppData\Local\Temp\WB_asus_29168_2\wbnew_files\dp0\SYS\DM\SYS.scdoc
/title,wbnew--Static Structural (A5)
! ****** Begin Custom Load Command Snippet ******
/COM, ACT Extensions:
/COM,     LSDYNA, 2024.1
/COM,     5f463412-bd3e-484b-87e7-cbc0a665e474, wbex
/COM,/COM,     ANSYSMotion, 2024.1
/COM,     20180725-3f81-49eb-9f31-41364844c769, wbex
/COM,
! ****** End   Custom Load Command Snippet ******
*DIM,_wb_ProjectScratch_dir,string,248
_wb_ProjectScratch_dir(1) = 'C:\Users\asus\AppData\Local\Temp\WB_asus_29168_2\_ProjectScratch\Scr1DF8\'
*DIM,_wb_SolverFiles_dir,string,248
_wb_SolverFiles_dir(1) = 'C:\Users\asus\AppData\Local\Temp\WB_asus_29168_2\wbnew_files\dp0\SYS\MECH\'
*DIM,_wb_userfiles_dir,string,248
_wb_userfiles_dir(1) = 'C:\Users\asus\AppData\Local\Temp\WB_asus_29168_2\wbnew_files\user_files\'
/com,--- Data in consistent NMM units. See Solving Units in the help system for more information.
/units,MPA
/nopr
/wb,file,start              !  signify a WB generated input file
/prep7
! Turn off shape checking because checks already performed inside WB mesher.
! See help system for more information.
SHPP,OFF,,NOWARN
/nolist
etcon,set             ! allow ANSYS to choose best KEYOP's for 180x elements, resets any applicable keyopt to MAPDL defaults
/com,*********** Nodes for the whole assembly ***********
nblock,3,,2399
(1i9,3e20.9e3)
        1     1.374125874E+02     1.250000000E+02     1.250000000E+02
        2     1.374125874E+02     1.250000000E+02     2.500000000E+02
        3     1.374125874E+02     1.250000000E+02     3.750000000E+02
        4     1.374125874E+02     1.250000000E+02     5.000000000E+02
        5     1.374125874E+02     1.250000000E+02     6.250000000E+02
        6     1.374125874E+02     1.250000000E+02     7.500000000E+02
        7     1.374125874E+02     1.250000000E+02     8.750000000E+02
        8     2.748251748E+02     1.250000000E+02     1.250000000E+02
        9     2.748251748E+02     1.250000000E+02     2.500000000E+02
       10     2.748251748E+02     1.250000000E+02     3.750000000E+02
       11     2.748251748E+02     1.250000000E+02     5.000000000E+02
       12     2.748251748E+02     1.250000000E+02     6.250000000E+02
       13     2.748251748E+02     1.250000000E+02     7.500000000E+02
       14     2.748251748E+02     1.250000000E+02     8.750000000E+02
       15     4.122377622E+02     1.250000000E+02     1.250000000E+02
       16     4.122377622E+02     1.250000000E+02     2.500000000E+02
       17     4.122377622E+02     1.250000000E+02     3.750000000E+02
       18     4.122377622E+02     1.250000000E+02     5.000000000E+02
       19     4.122377622E+02     1.250000000E+02     6.250000000E+02
       20     4.122377622E+02     1.250000000E+02     7.500000000E+02
! ... 2162 like lines cut
/wb,elem,start            !  set before creation of elements
/com,*********** Elements for Body 1 "SYS\Boss-Extrude1" ***********
et,1,186
keyo,1,2,1          ! set full integration on SOLID186
eblock,19,solid,,352
(19i9)
        1        1        1        1        0        0        0        0       20        0        1        1      362      335      324      168      489      334      325
      626     1661     1640      625     1300     1659     1642     1299      624     1735     1658     1638
        1        1        1        1        0        0        0        0       20        0        2        1      324      335      362        2      323      336      383
      625     1640     1661      626      630     1637     1663      631      622     1635     1660     1734
        1        1        1        1        0        0        0        0       20        0        3        2      323      336      383        3      322      337      404
      630     1637     1663      631      635     1634     1665      636      628     1632     1662     1777
        1        1        1        1        0        0        0        0       20        0        4        3      322      337      404        4      321      338      425
      635     1634     1665      636      640     1631     1667      641      633     1629     1664     1819
        1        1        1        1        0        0        0        0       20        0        5        4      321      338      425        5      320      339      446
      640     1631     1667      641      645     1628     1669      646      638     1626     1666     1861
        1        1        1        1        0        0        0        0       20        0        6        5      320      339      446        6      319      340      467
      645     1628     1669      646      650     1625     1671      651      643     1623     1668     1903
        1        1        1        1        0        0        0        0       20        0        7        6      319      340      467        7      318      341      488
      650     1625     1671      651      655     1622     1672      656      648     1620     1670     1945
        1        1        1        1        0        0        0        0       20        0        8        7      318      341      488      169      226      225      224
      655     1622     1672      656     1305     1438     1436     1304      654     1441     1439     1437
        1        1        1        1        0        0        0        0       20        0        9        1        8      361      362      168      167      490      489
      623      661     1731      626     1296     1297     1967     1300      624      660     1733     1735
        1        1        1        1        0        0        0        0       20        0       10        1      362      361        8        2      383      382        9
      626     1731      661      623      631     1775      665      629      622     1734     1732      658
! ... 685 like lines cut
!Material Id = {6E7D68BE-C66F-437A-8173-E358158382A9}
/wb,elem,end               !  done creating elements
/com,*********** Send User Defined Coordinate System(s) ***********
csys,0
toffst,273.15,  ! Temperature offset from absolute zero
/com,*********** Set Reference Temperature ***********
tref,22.
/wb,mat,start              !  starting to send materials
/com,*********** Send Materials ***********
Temperature = 'TEMP' ! Temperature
MP,DENS,1,7.85e-09,	! tonne mm^-3
MP,ALPX,1,1.2e-05,	! C^-1
MP,C,1,434000000,	! mm^2 s^-2 C^-1
MP,KXX,1,60.5,	! tonne mm s^-3 C^-1
MP,RSVX,1,0.00017,	! ohm mm
MP,EX,1,200000,	! tonne s^-2 mm^-1
MP,NUXY,1,0.3,
MP,MURX,1,10000,
MP,UVID,1,283a413c-610d-4c40-b8c2-dc2b603558df
MP,UMID,1,59002a79-71c2-428e-906b-55d7dbee100e

/wb,mat,end                !  done sending materials
!************************* Model Summary ********************
!SYS\Boss-Extrude1,	Structural Steel,	matid,	1
!************************* End Model Summary ********************
! get the diagonal of the bounding box. Needed later for other things
*get,_xmin,node,,mnloc,x
*get,_ymin,node,,mnloc,y
*get,_zmin,node,,mnloc,z
*get,_xmax,node,,mxloc,x
*get,_ymax,node,,mxloc,y
*get,_zmax,node,,mxloc,z
_ASMDIAG=(_xmax-_xmin)*(_xmax-_xmin)+(_ymax-_ymin)*(_ymax-_ymin)+(_zmax-_zmin)*(_zmax-_zmin)
_ASMDIAG=SQRT(_ASMDIAG)
/wb,contact,start          !  starting to send contact
/wb,contact,end            !  done creating contacts
/com,*********** Send Named Selection as Element Component ***********
esel,s,type,,1
cm,NONE,elem
esel,all
/golist
/wb,load,start             !  starting to send loads
/com,*********** Fixed Supports ***********
CMBLOCK,_FIXEDSU,NODE,       69
(8i10)
       225       226       227       318       319       320       321       322
       323       324       325       326       327       328       329       330
       331       332       333       334       335       336       337       338
       339       340       341      1438      1439      1440      1441      1442
      1620      1621      1622      1623      1624      1625      1626      1627
      1628      1629      1630      1631      1632      1633      1634      1635
      1636      1637      1638      1639      1640      1641      1642      1643
      1645      1647      1649      1651      1653      1655      1658      1660
      1662      1664      1666      1668      1670
cmsel,s,_FIXEDSU
d,all,all
nsel,all
/com,*********** Define Force Using Surface Effect Elements ***********
local,12,0,0.,0.,0.,0.,0.,0.
csys,0
et,2,154
mat,2
eblock,10,,,104
(15i9)
      825        2        2        2       12      327      526      621      326     1646     2012     1644     1643
      826        2        2        2       12      328      538      526      327     1648     2011     1646     1645
      827        2        2        2       12      329      550      538      328     1650     2046     1648     1647
      828        2        2        2       12      330      562      550      329     1652     2069     1650     1649
      829        2        2        2       12      331      574      562      330     1654     2092     1652     1651
      830        2        2        2       12      332      586      574      331     1656     2115     1654     1653
      831        2        2        2       12      333      598      586      332     1657     2138     1656     1655
      832        2        2        2       12      227      190      598      333     1367     1368     1657     1442
      833        2        2        2       12      526      527      620      621     2010     2015     2181     2012
      834        2        2        2       12      538      539      527      526     2045     2014     2010     2011
      835        2        2        2       12      550      551      539      538     2068     2048     2045     2046
      836        2        2        2       12      562      563      551      550     2091     2071     2068     2069
      837        2        2        2       12      574      575      563      562     2114     2094     2091     2092
      838        2        2        2       12      586      587      575      574     2137     2117     2114     2115
      839        2        2        2       12      598      599      587      586     2160     2140     2137     2138
      840        2        2        2       12      190      191      599      598     1366     1370     2160     1368
      841        2        2        2       12      527      528      619      620     2013     2018     2180     2015
      842        2        2        2       12      539      540      528      527     2047     2017     2013     2014
      843        2        2        2       12      551      552      540      539     2070     2050     2047     2048
      844        2        2        2       12      563      564      552      551     2093     2073     2070     2071
! ... 85 like lines cut
esel,s,type,,2
keyop,2,2,1                ! Apply load in local coordinate system
keyop,2,7,1                ! Use original area so load is constant in large deformation
esel,all
/com,*********** Define Force Using Surface Effect Elements ***********
local,13,0,0.,0.,0.,0.,0.,0.
csys,0
et,3,156
mat,3
keyop,3,5,1         !  No orientation node
eblock,10,,,8
(15i9)
      929        3        3        3       13      303      302     1590
      930        3        3        3       13      303      304     1592
      931        3        3        3       13      304      305     1594
      932        3        3        3       13      305      306     1596
      933        3        3        3       13      306      307     1598
      934        3        3        3       13      307      308     1600
      935        3        3        3       13      308      309     1602
      936        3        3        3       13      309      228     1444
-1
esel,s,type,,3
keyop,3,2,1                ! Apply load in local coordinate system
keyop,3,7,1                ! Use original area so load is constant in large deformation
esel,all
/com,*********** Define Force Using Surface Effect Elements ***********
local,14,0,0.,0.,0.,0.,0.,0.
csys,0
et,4,156
mat,4
keyop,4,5,1         !  No orientation node
eblock,10,,,8
(15i9)
      937        4        4        4       14      311      310     1605
      938        4        4        4       14      311      312     1607
      939        4        4        4       14      312      313     1609
      940        4        4        4       14      313      314     1611
      941        4        4        4       14      314      315     1613
      942        4        4        4       14      315      316     1615
      943        4        4        4       14      316      317     1617
      944        4        4        4       14      317      237     1461
-1
esel,s,type,,4
keyop,4,2,1                ! Apply load in local coordinate system
keyop,4,7,1                ! Use original area so load is constant in large deformation
esel,all
/gst,on,on
fini
*get,_numnode,node,0,count
*get,_numelem,elem,0,count
*get, _MAXELEMNUM, elem, 0, NUM, MAX
*get, _MAXNODENUM, node, 0, NUM, MAX
*get, _MAXELEMTYPE, etyp, 0, NUM, MAX
*get, _MAXREALCONST, rcon, 0, NUM, MAX
/go
/wb,load,end               !  done creating loads
/com,--- Number of total nodes = %_numnode%
/com,--- Number of contact elements = 120
/com,--- Number of spring elements = 0
/com,--- Number of bearing elements = 0
/com,--- Number of solid elements = 352
/com,--- Number of condensed parts = 0
/com,--- Number of total elements = %_numelem%
*get,_wallbsol,active,,time,wall
/com,****************************************************************************
/com,*************************    SOLUTION       ********************************
/com,****************************************************************************
/solu
antype,0                   ! static analysis
_thickRatio=  0     ! Ratio of thick parts in the model
eqsl,sparse,,,,,1
cntr,print,1               ! print out contact info and also make no initial contact an error
cncheck,dmp		!	Enable program controlled contact splitting for distributed memory parallel run
dmpoption,emat,no             ! Don't combine emat file for DANSYS
dmpoption,esav,no             ! Don't combine esav file for DANSYS
nldiag,cont,iter           ! print out contact info each equilibrium iteration
rescontrol,,none                 ! Do not keep any restart files
/com,****************************************************
/com,******************* SOLVE FOR LS 1 OF 1 ****************
esel,s,type,,2
nsle
sfe,all,1,pres,1,0.
sfe,all,2,pres,1,-1.6666666666668e-002
sfe,all,3,pres,1,0.
esel,s,type,,3
nsle
sfe,all,1,pres,1,0.
sfe,all,2,pres,1,-50.
sfe,all,3,pres,1,0.
esel,s,type,,4
nsle
sfe,all,1,pres,1,0.
sfe,all,2,pres,1,-40.
sfe,all,3,pres,1,0.
nsel,all
esel,all
/nopr
/gopr
nsub,1,1,1
time,1.
outres,erase
outres,all,none
outres,nsol,all,
outres,rsol,all
outres,eangl,all
outres,etmp,all
outres,veng,all
outres,strs,all,
outres,epel,all,
outres,eppl,all,
outres,cont,all,
! *********** WB SOLVE COMMAND ***********
! check interactive state
*get,ANSINTER_,active,,int
*if,ANSINTER_,ne,0,then
/eof
*endif
solve
/com *************** Write FE CONNECTORS ********* 
CEWRITE,file,ce,,INTE
/com,****************************************************
/com,*************** FINISHED SOLVE FOR LS 1 *************
*get,_wallasol,active,,time,wall
/nopr
*get,_numnode,node,0,count
*get,_numelem,elem,0,count
*get, _MAXELEMNUM, elem, 0, NUM, MAX
*get, _MAXNODENUM, node, 0, NUM, MAX,,,INTERNAL
*get, _MAXELEMTYPE, etyp, 0, NUM, MAX
*get, _MAXREALCONST, rcon, 0, NUM, MAX
*get,_NSOLTHREADS,active,0,ntfs
*get,_NSOLPROCESSES,active,0,npfs
/gopr
/post1
xmlo,ENCODING,ISO-8859-1
xmlo,parm
/xml,parm,xml
fini
/gopr
*get,_walldone,active,,time,wall
_preptime=(_wallbsol-_wallstrt)*3600
_solvtime=(_wallasol-_wallbsol)*3600
_posttime=(_walldone-_wallasol)*3600
_totaltim=(_walldone-_wallstrt)*3600
*get,_dlbratio,active,0,solu,dlbr
*get,_combtime,active,0,solu,comb
*get,_ssmode,active,0,solu,ssmm
*get,_ndofs,active,0,solu,ndof
*get,_sol_end_time,active,0,set,time
*if,_sol_end_time,eq,1.000000,then
/fclean				!clean distributed files
*endif
/com,--- Total number of nodes = %_numnode%
/com,--- Total number of elements = %_numelem%
/com,--- Element load balance ratio = %_dlbratio%
/com,--- Time to combine distributed files = %_combtime%
/com,--- Sparse memory mode = %_ssmode%
/com,--- Number of DOF = %_ndofs%
/wb,file,end               ! done with WB generated input
