/batch
/config,noeldb,1     ! force off writing results to database
*get,_wallstrt,active,,time,wall
! ANSYS input file written by Workbench version 2024 R1
! File used for geometry attach: C:\Users\asus\AppData\Local\Temp\WB_asus_29168_4\wbnew_files\dp0\SYS\DM\SYS.scdoc
/title,wbnew--Static Structural (A5)
! ****** Begin Custom Load Command Snippet ******
/COM, ACT Extensions:
/COM,     LSDYNA, 2024.1
/COM,     5f463412-bd3e-484b-87e7-cbc0a665e474, wbex
/COM,/COM,     ANSYSMotion, 2024.1
/COM,     20180725-3f81-49eb-9f31-41364844c769, wbex
/COM,
! ****** End   Custom Load Command Snippet ******
*DIM,_wb_ProjectScratch_dir,string,248
_wb_ProjectScratch_dir(1) = 'C:\Users\asus\AppData\Local\Temp\WB_asus_29168_4\_ProjectScratch\Scr6E21\'
*DIM,_wb_SolverFiles_dir,string,248
_wb_SolverFiles_dir(1) = 'C:\Users\asus\AppData\Local\Temp\WB_asus_29168_4\wbnew_files\dp0\SYS\MECH\'
*DIM,_wb_userfiles_dir,string,248
_wb_userfiles_dir(1) = 'C:\Users\asus\AppData\Local\Temp\WB_asus_29168_4\wbnew_files\user_files\'
/com,--- Data in consistent MKS units. See Solving Units in the help system for more information.
/units,MKS
/nopr
/wb,file,start              !  signify a WB generated input file
/prep7
! Turn off shape checking because checks already performed inside WB mesher.
! See help system for more information.
SHPP,OFF,,NOWARN
/nolist
etcon,set             ! allow ANSYS to choose best KEYOP's for 180x elements, resets any applicable keyopt to MAPDL defaults
/com,*********** Nodes for the whole assembly ***********
nblock,3,,2178
(1i9,3e20.9e3)
        1     0.000000000E+00     1.000000000E-01    -2.128557880E-01
        2     0.000000000E+00     1.000000000E-01    -4.257115761E-01
        3     0.000000000E+00     5.000000000E-01    -4.257115761E-01
        4     0.000000000E+00     9.000000000E-01    -4.257115761E-01
        5     0.000000000E+00     9.000000000E-01    -2.128557880E-01
        6     0.000000000E+00     9.000000000E-01    -1.224646799E-17
        7     0.000000000E+00     1.000000000E+00     0.000000000E+00
        8     0.000000000E+00     1.000000000E+00    -3.333333333E-01
        9     0.000000000E+00     1.000000000E+00    -6.666666667E-01
       10     0.000000000E+00     1.000000000E+00    -1.000000000E+00
       11     0.000000000E+00     9.000000000E-01    -1.000000000E+00
       12     0.000000000E+00     9.000000000E-01    -7.628557880E-01
       13     0.000000000E+00     9.000000000E-01    -5.257115761E-01
       14     0.000000000E+00     5.000000000E-01    -5.257115761E-01
       15     0.000000000E+00     1.000000000E-01    -5.257115761E-01
       16     0.000000000E+00     1.000000000E-01    -7.628557880E-01
       17     0.000000000E+00     1.000000000E-01    -1.000000000E+00
       18     0.000000000E+00     0.000000000E+00    -1.000000000E+00
       19     0.000000000E+00     0.000000000E+00    -6.666666667E-01
       20     0.000000000E+00     0.000000000E+00    -3.333333333E-01
! ... 1961 like lines cut
/wb,elem,start            !  set before creation of elements
/com,*********** Elements for Body 1 "SYS\Boss-Extrude1" ***********
et,1,186
keyo,1,2,1          ! set full integration on SOLID186
eblock,19,solid,,300
(19i9)
        1        1        1        1        0        0        0        0       20        0        1       23      323      348       34       46      324      349       45
      632     1495      698      629      733     1497      731      729      630     1494     1557      696
        1        1        1        1        0        0        0        0       20        0        2       23       34      348      323       24       35      347      322
      629      698     1495      632      636      701     1492      638      628      695     1555     1491
        1        1        1        1        0        0        0        0       20        0        3       24       35      347      322       25       36      346      321
      636      701     1492      638      642      704     1489      644      635      699     1553     1488
        1        1        1        1        0        0        0        0       20        0        4       25       36      346      321       26       37      345      320
      642      704     1489      644      648      707     1486      650      641      702     1551     1485
        1        1        1        1        0        0        0        0       20        0        5       26       37      345      320       27       38      344      319
      648      707     1486      650      654      710     1483      656      647      705     1549     1482
        1        1        1        1        0        0        0        0       20        0        6       27       38      344      319       28       39      343      318
      654      710     1483      656      660      713     1480      662      653      708     1547     1479
        1        1        1        1        0        0        0        0       20        0        7       28       39      343      318       29       40      342      317
      660      713     1480      662      666      716     1477      668      659      711     1545     1476
        1        1        1        1        0        0        0        0       20        0        8       29       40      342      317       30       41      341      316
      666      716     1477      668      672      719     1474      674      665      714     1543     1473
        1        1        1        1        0        0        0        0       20        0        9       30       41      341      316       31       42      340      315
      672      719     1474      674      678      722     1471      680      671      717     1541     1470
        1        1        1        1        0        0        0        0       20        0       10       31       42      340      315       32       43      339      314
      678      722     1471      680      684      725     1468      686      677      720     1539     1467
! ... 581 like lines cut
!Material Id = {DC106C0D-34CC-404F-9E27-C68D13611F82}
/wb,elem,end               !  done creating elements
/com,*********** Send User Defined Coordinate System(s) ***********
csys,0
toffst,273.15,  ! Temperature offset from absolute zero
/com,*********** Set Reference Temperature ***********
tref,22.
/wb,mat,start              !  starting to send materials
/com,*********** Send Materials ***********
Temperature = 'TEMP' ! Temperature
MP,DENS,1,7850,	! kg m^-3
MP,ALPX,1,1.2e-05,	! C^-1
MP,C,1,434,	! J kg^-1 C^-1
MP,KXX,1,60.5,	! W m^-1 C^-1
MP,RSVX,1,1.7e-07,	! kg m^3 A^-2 s^-3
MP,EX,1,200000000000,	! Pa
MP,NUXY,1,0.3,
MP,MURX,1,10000,
MP,UVID,1,91ead89d-b553-4362-b35a-02df37e829f6
MP,UMID,1,59002a79-71c2-428e-906b-55d7dbee100e

/wb,mat,end                !  done sending materials
!************************* Model Summary ********************
!SYS\Boss-Extrude1,	Structural Steel,	matid,	1
!************************* End Model Summary ********************
! get the diagonal of the bounding box. Needed later for other things
*get,_xmin,node,,mnloc,x
*get,_ymin,node,,mnloc,y
*get,_zmin,node,,mnloc,z
*get,_xmax,node,,mxloc,x
*get,_ymax,node,,mxloc,y
*get,_zmax,node,,mxloc,z
_ASMDIAG=(_xmax-_xmin)*(_xmax-_xmin)+(_ymax-_ymin)*(_ymax-_ymin)+(_zmax-_zmin)*(_zmax-_zmin)
_ASMDIAG=SQRT(_ASMDIAG)
/wb,contact,start          !  starting to send contact
/wb,contact,end            !  done creating contacts
/com,*********** Send Named Selection as Element Component ***********
esel,s,type,,1
cm,NONE,elem
esel,all
/golist
/wb,load,start             !  starting to send loads
/com,*********** Fixed Supports ***********
CMBLOCK,_FIXEDSU,NODE,       14
(8i10)
        18        19        20        21       124       173       174       199
       619       621       623       919      1112      1115
cmsel,s,_FIXEDSU
d,all,all
nsel,all
/com,*********** Define Force Using Surface Effect Elements ***********
local,12,0,0.,0.,0.,0.,0.,0.
csys,0
et,2,154
mat,2
eblock,10,,,36
(15i9)
      875        2        2        2       12       46       23       57       58      630      631      757      732
      876        2        2        2       12       45       34       23       46      696      629      630      729
      877        2        2        2       12       74       73       34       45      794      697      696      730
      878        2        2        2       12       23       24       56       57      628      637      755      631
      879        2        2        2       12       34       35       24       23      695      636      628      629
      880        2        2        2       12       73       72       35       34      792      700      695      697
      881        2        2        2       12       24       25       55       56      635      643      753      637
      882        2        2        2       12       35       36       25       24      699      642      635      636
      883        2        2        2       12       72       71       36       35      790      703      699      700
      884        2        2        2       12       25       26       54       55      641      649      751      643
      885        2        2        2       12       36       37       26       25      702      648      641      642
      886        2        2        2       12       71       70       37       36      788      706      702      703
      887        2        2        2       12       26       27       53       54      647      655      749      649
      888        2        2        2       12       37       38       27       26      705      654      647      648
      889        2        2        2       12       70       69       38       37      786      709      705      706
      890        2        2        2       12       27       28       52       53      653      661      747      655
      891        2        2        2       12       38       39       28       27      708      660      653      654
      892        2        2        2       12       69       68       39       38      784      712      708      709
      893        2        2        2       12       28       29       51       52      659      667      745      661
      894        2        2        2       12       39       40       29       28      711      666      659      660
! ... 17 like lines cut
esel,s,type,,2
keyop,2,2,1                ! Apply load in local coordinate system
keyop,2,7,1                ! Use original area so load is constant in large deformation
esel,all
/gst,on,on
fini
*get,_numnode,node,0,count
*get,_numelem,elem,0,count
*get, _MAXELEMNUM, elem, 0, NUM, MAX
*get, _MAXNODENUM, node, 0, NUM, MAX
*get, _MAXELEMTYPE, etyp, 0, NUM, MAX
*get, _MAXREALCONST, rcon, 0, NUM, MAX
/go
/wb,load,end               !  done creating loads
/com,--- Number of total nodes = %_numnode%
/com,--- Number of contact elements = 36
/com,--- Number of spring elements = 0
/com,--- Number of bearing elements = 0
/com,--- Number of solid elements = 300
/com,--- Number of condensed parts = 0
/com,--- Number of total elements = %_numelem%
*get,_wallbsol,active,,time,wall
/com,****************************************************************************
/com,*************************    SOLUTION       ********************************
/com,****************************************************************************
/solu
antype,0                   ! static analysis
_thickRatio=  1     ! Ratio of thick parts in the model
eqsl,pcg,1e-8,,,,,,1
cntr,print,1               ! print out contact info and also make no initial contact an error
cncheck,dmp		!	Enable program controlled contact splitting for distributed memory parallel run
dmpoption,emat,no             ! Don't combine emat file for DANSYS
dmpoption,esav,no             ! Don't combine esav file for DANSYS
nldiag,cont,iter           ! print out contact info each equilibrium iteration
rescontrol,,none                 ! Do not keep any restart files
/com,****************************************************
/com,******************* SOLVE FOR LS 1 OF 1 ****************
esel,s,type,,2
nsle
sfe,all,1,pres,1,0.
sfe,all,2,pres,1,-8000.00000000061
sfe,all,3,pres,1,-8.88178419700192e-013
nsel,all
esel,all
/nopr
/gopr
nsub,1,1,1
time,1.
outres,erase
outres,all,none
outres,nsol,all,
outres,rsol,all
outres,eangl,all
outres,etmp,all
outres,veng,all
outres,strs,all,
outres,epel,all,
outres,eppl,all,
outres,cont,all,
! *********** WB SOLVE COMMAND ***********
! check interactive state
*get,ANSINTER_,active,,int
*if,ANSINTER_,ne,0,then
/eof
*endif
solve
/com *************** Write FE CONNECTORS ********* 
CEWRITE,file,ce,,INTE
/com,****************************************************
/com,*************** FINISHED SOLVE FOR LS 1 *************
*get,_wallasol,active,,time,wall
/nopr
*get,_numnode,node,0,count
*get,_numelem,elem,0,count
*get, _MAXELEMNUM, elem, 0, NUM, MAX
*get, _MAXNODENUM, node, 0, NUM, MAX,,,INTERNAL
*get, _MAXELEMTYPE, etyp, 0, NUM, MAX
*get, _MAXREALCONST, rcon, 0, NUM, MAX
*get,_NSOLTHREADS,active,0,ntfs
*get,_NSOLPROCESSES,active,0,npfs
/gopr
*get,_PCGITER,active,,solu,cgiter
/post1
xmlo,ENCODING,ISO-8859-1
xmlo,parm
/xml,parm,xml
fini
/gopr
*get,_walldone,active,,time,wall
_preptime=(_wallbsol-_wallstrt)*3600
_solvtime=(_wallasol-_wallbsol)*3600
_posttime=(_walldone-_wallasol)*3600
_totaltim=(_walldone-_wallstrt)*3600
*get,_dlbratio,active,0,solu,dlbr
*get,_combtime,active,0,solu,comb
*get,_ssmode,active,0,solu,ssmm
*get,_ndofs,active,0,solu,ndof
*get,_sol_end_time,active,0,set,time
*if,_sol_end_time,eq,1.000000,then
/fclean				!clean distributed files
*endif
/com,--- Total number of nodes = %_numnode%
/com,--- Total number of elements = %_numelem%
/com,--- Element load balance ratio = %_dlbratio%
/com,--- Time to combine distributed files = %_combtime%
/com,--- Sparse memory mode = %_ssmode%
/com,--- Number of DOF = %_ndofs%
/wb,file,end               ! done with WB generated input
